network = Network
sim-time-limit = 200s

Network.node[{0,1,3,2,4,6,7,8}].app.interArrivalTime = exponential(1)
Network.node[{0,1,3,2,4,6,7,8}].app.packetByteSize = 125000
Network.node[{0,1,3,2,4,6,7,8}].app.destination = 5